tests/data/power_flow/pandapower/networks/symmetric/transmission-case/input.json
{
  "version": "1.0",
  "type": "input",
  "is_batch": false,
  "attributes": {},
  "data": {
    "node": [
      {
        "id": 1,
        "u_rated": 20000.0
      },
      {
        "id": 2,
        "u_rated": 20000.0
      },
      {
        "id": 3,
        "u_rated": 230000.0
      },
      {
        "id": 4,
        "u_rated": 230000.0
      },
      {
        "id": 5,
        "u_rated": 230000.0
      },
      {
        "id": 6,
        "u_rated": 230000.0
      },
      {
        "id": 7,
        "u_rated": 230000.0
      },
      {
        "id": 8,
        "u_rated": 230000.0
      },
      {
        "id": 9,
        "u_rated": 230000.0
      },
      {
        "id": 10,
        "u_rated": 20000.0
      },
      {
        "id": 11,
        "u_rated": 20000.0
      }
    ],
    "line": [
      {
        "id": 12,
        "from_node": 3,
        "to_node": 4,
        "from_status": 1,
        "to_status": 1,
        "r1": 2.645,
        "x1": 26.45,
        "c1": 1.10248e-07,
        "tan1": 0.0,
        "r0": 7.9350000000000005,
        "x0": 79.35,
        "c0": 3.30744e-07,
        "tan0": 0.0,
        "i_n": 10000.0
      },
      {
        "id": 13,
        "from_node": 4,
        "to_node": 5,
        "from_status": 1,
        "to_status": 1,
        "r1": 1.587,
        "x1": 15.87,
        "c1": 2.93978e-08,
        "tan1": 0.0,
        "r0": 4.761,
        "x0": 47.61,
        "c0": 8.81934e-08,
        "tan0": 0.0,
        "i_n": 10000.0
      },
      {
        "id": 14,
        "from_node": 5,
        "to_node": 6,
        "from_status": 1,
        "to_status": 1,
        "r1": 5.814,
        "x1": 58.19,
        "c1": 9.652511e-07,
        "tan1": 0.0,
        "r0": 17.442,
        "x0": 174.57,
        "c0": 2.8957533e-06,
        "tan0": 0.0,
        "i_n": 10000.0
      },
      {
        "id": 15,
        "from_node": 5,
        "to_node": 6,
        "from_status": 1,
        "to_status": 1,
        "r1": 5.814,
        "x1": 58.19,
        "c1": 9.652511e-07,
        "tan1": 0.0,
        "r0": 17.442,
        "x0": 174.57,
        "c0": 2.8957533e-06,
        "tan0": 0.0,
        "i_n": 10000.0
      },
      {
        "id": 16,
        "from_node": 6,
        "to_node": 7,
        "from_status": 1,
        "to_status": 1,
        "r1": 5.814,
        "x1": 58.19,
        "c1": 9.652511e-07,
        "tan1": 0.0,
        "r0": 17.442,
        "x0": 174.57,
        "c0": 2.8957533e-06,
        "tan0": 0.0,
        "i_n": 10000.0
      },
      {
        "id": 17,
        "from_node": 6,
        "to_node": 7,
        "from_status": 1,
        "to_status": 1,
        "r1": 5.814,
        "x1": 58.19,
        "c1": 9.652511e-07,
        "tan1": 0.0,
        "r0": 17.442,
        "x0": 174.57,
        "c0": 2.8957533e-06,
        "tan0": 0.0,
        "i_n": 10000.0
      },
      {
        "id": 18,
        "from_node": 7,
        "to_node": 8,
        "from_status": 1,
        "to_status": 1,
        "r1": 1.587,
        "x1": 15.87,
        "c1": 2.93978e-08,
        "tan1": 0.0,
        "r0": 4.761,
        "x0": 47.61,
        "c0": 8.81934e-08,
        "tan0": 0.0,
        "i_n": 10000.0
      },
      {
        "id": 19,
        "from_node": 8,
        "to_node": 9,
        "from_status": 1,
        "to_status": 1,
        "r1": 1.3225,
        "x1": 13.225,
        "c1": 5.5124e-08,
        "tan1": 0.0,
        "r0": 3.9675000000000002,
        "x0": 39.675,
        "c0": 1.65372e-07,
        "tan0": 0.0,
        "i_n": 10000.0
      }
    ],
    "sym_gen": [
      {
        "id": 21,
        "node": 1,
        "status": 1,
        "type": 0,
        "p_specified": 70000000.0,
        "q_specified": 18000000.0
      },
      {
        "id": 22,
        "node": 2,
        "status": 1,
        "type": 0,
        "p_specified": 70000000.0,
        "q_specified": 25000000.0
      },
      {
        "id": 23,
        "node": 10,
        "status": 1,
        "type": 0,
        "p_specified": 70000000.0,
        "q_specified": 20000000.0
      }
    ],
    "shunt": [
      {
        "id": 28,
        "node": 5,
        "status": 1,
        "g1": 3.780719e-06,
        "b1": 3.780719e-05,
        "g0": 0.0003780719,
        "b0": 8e-05
      },
      {
        "id": 29,
        "node": 7,
        "status": 1,
        "g1": 6.616257e-06,
        "b1": 6.616257e-05,
        "g0": 0.0006616257,
        "b0": 8e-05
      }
    ],
    "transformer": [
      {
        "id": 30,
        "from_node": 3,
        "to_node": 1,
        "from_status": 1,
        "to_status": 1,
        "u1": 230000.0,
        "u2": 20000.0,
        "sn": 900000000.0,
        "uk": 0.03,
        "pk": 0.0,
        "i0": 0.001,
        "p0": 1000.0,
        "winding_from": 1,
        "winding_to": 1,
        "clock": 0,
        "tap_side": 0,
        "tap_pos": 0,
        "tap_min": -5,
        "tap_max": 5,
        "tap_nom": 0,
        "tap_size": 2300.0
      },
      {
        "id": 31,
        "from_node": 4,
        "to_node": 2,
        "from_status": 1,
        "to_status": 1,
        "u1": 230000.0,
        "u2": 20000.0,
        "sn": 900000000.0,
        "uk": 0.03,
        "pk": 0.0,
        "i0": 0.001,
        "p0": 1000.0,
        "winding_from": 1,
        "winding_to": 1,
        "clock": 0,
        "tap_side": 0,
        "tap_pos": 0,
        "tap_min": -5,
        "tap_max": 5,
        "tap_nom": 0,
        "tap_size": 2300.0
      },
      {
        "id": 32,
        "from_node": 9,
        "to_node": 11,
        "from_status": 1,
        "to_status": 1,
        "u1": 230000.0,
        "u2": 20000.0,
        "sn": 900000000.0,
        "uk": 0.03,
        "pk": 0.0,
        "i0": 0.001,
        "p0": 1000.0,
        "winding_from": 1,
        "winding_to": 1,
        "clock": 0,
        "tap_side": 0,
        "tap_pos": 0,
        "tap_min": -5,
        "tap_max": 5,
        "tap_nom": 0,
        "tap_size": 2300.0
      },
      {
        "id": 33,
        "from_node": 8,
        "to_node": 10,
        "from_status": 1,
        "to_status": 1,
        "u1": 230000.0,
        "u2": 20000.0,
        "sn": 900000000.0,
        "uk": 0.03,
        "pk": 0.0,
        "i0": 0.001,
        "p0": 1000.0,
        "winding_from": 1,
        "winding_to": 1,
        "clock": 0,
        "tap_side": 0,
        "tap_pos": 0,
        "tap_min": -5,
        "tap_max": 5,
        "tap_nom": 0,
        "tap_size": 2300.0
      }
    ],
    "sym_load": [
      {
        "id": 24,
        "node": 5,
        "status": 1,
        "type": 0,
        "p_specified": 96000000.0,
        "q_specified": 10000000.0
      },
      {
        "id": 25,
        "node": 7,
        "status": 1,
        "type": 0,
        "p_specified": 176000000.0,
        "q_specified": 10000000.0
      }
    ],
    "source": [
      {
        "id": 20,
        "node": 11,
        "status": 1,
        "u_ref": 1.03,
        "sk": 10000000000.0,
        "rx_ratio": 0.1,
        "z01_ratio": 1.0
      }
    ]
  }
}
