tests/data/power_flow/pandapower/networks/symmetric/transmission-case/sym_output.json
{
  "version": "1.0",
  "type": "sym_output",
  "is_batch": false,
  "attributes": {},
  "data": {
    "line": [
      {
        "id": 12,
        "loading": 0.015341791496850624,
        "p_from": 69998590.37783659,
        "q_from": 16608392.256761394,
        "s_from": 71941930.38999307,
        "p_to": -69813352.01804969,
        "q_to": -17315728.44630284,
        "s_to": 71928704.7820425
      },
      {
        "id": 13,
        "loading": 0.031111285904823684,
        "p_from": 139811966.1259872,
        "q_from": 40936360.25433955,
        "s_from": 145681747.18504462,
        "p_to": -139351683.08828685,
        "q_to": -37002471.14958901,
        "s_to": 144180700.68741688
      },
      {
        "id": 14,
        "loading": 0.009093054400041184,
        "p_from": 21540509.235930074,
        "q_from": 14854558.656926345,
        "s_from": 26165845.123657946,
        "p_to": -21449149.557859894,
        "q_to": -35166062.0028908,
        "s_to": 41191236.12549885
      },
      {
        "id": 15,
        "loading": 0.009093054400041184,
        "p_from": 21540509.235930074,
        "q_from": 14854558.656926345,
        "s_from": 26165845.123657946,
        "p_to": -21449149.557859894,
        "q_to": -35166062.0028908,
        "s_to": 41191236.12549885
      },
      {
        "id": 16,
        "loading": 0.01312052951879839,
        "p_from": 21449149.557859868,
        "q_from": 35166062.00289054,
        "s_from": 41191236.125498615,
        "p_to": -21233790.66401536,
        "q_to": -52930875.29023327,
        "s_to": 57031144.3419598
      },
      {
        "id": 17,
        "loading": 0.01312052951879839,
        "p_from": 21449149.557859868,
        "q_from": 35166062.00289054,
        "s_from": 41191236.125498615,
        "p_to": -21233790.66401536,
        "q_to": -52930875.29023327,
        "s_to": 57031144.3419598
      },
      {
        "id": 18,
        "loading": 0.03853793422567165,
        "p_from": -133949108.173144,
        "q_from": 100028645.59221712,
        "s_from": 167176833.08220074,
        "p_to": 134654829.76480168,
        "q_to": -93540865.83597206,
        "s_to": 163956752.71342456
      },
      {
        "id": 19,
        "loading": 0.030680106749946236,
        "p_from": -64655970.93681964,
        "q_from": 112359682.39742355,
        "s_from": 129634458.40606098,
        "p_to": 65026913.33776724,
        "q_to": -109671158.32498568,
        "s_to": 127500048.7316831
      }
    ],
    "node": [
      {
        "id": 1,
        "u_pu": 1.1875179833687608,
        "u": 23750.359667375214,
        "u_angle": 0.023399776679384775
      },
      {
        "id": 2,
        "u_pu": 1.1775832855345776,
        "u": 23551.66571069155,
        "u_angle": -0.000986644089619106
      },
      {
        "id": 3,
        "u_pu": 1.187032166814745,
        "u": 273017.3983673914,
        "u_angle": 0.02174450255542442
      },
      {
        "id": 4,
        "u_pu": 1.176894953236444,
        "u": 270685.8392443821,
        "u_angle": -0.0026702612959376075
      },
      {
        "id": 5,
        "u_pu": 1.163324049705992,
        "u": 267564.53143237816,
        "u_angle": -0.03240588646959001
      },
      {
        "id": 6,
        "u_pu": 1.1371207182141174,
        "u": 261537.765189247,
        "u_angle": -0.04818242851064699
      },
      {
        "id": 7,
        "u_pu": 1.0911193554858116,
        "u": 250957.45176173668,
        "u_angle": -0.06316546192373222
      },
      {
        "id": 8,
        "u_pu": 1.0679536727792591,
        "u": 245629.3447392296,
        "u_angle": -0.026088730456232914
      },
      {
        "id": 9,
        "u_pu": 1.0431938570217805,
        "u": 239934.58711500952,
        "u_angle": -0.00904604209060474
      },
      {
        "id": 10,
        "u_pu": 1.0685593050203868,
        "u": 21371.186100407733,
        "u_angle": -0.024044063861313858
      },
      {
        "id": 11,
        "u_pu": 1.0397072418285354,
        "u": 20794.144836570707,
        "u_angle": -0.007047562496808957
      }
    ],
    "shunt": [
      {
        "id": 28,
        "p": 270664.6164265018,
        "q": -2706646.164265017
      },
      {
        "id": 29,
        "p": 416689.50117497577,
        "q": -4166895.011749757
      }
    ],
    "sym_gen": [
      {
        "id": 21,
        "p": 70000000.0,
        "q": 18000000.0
      },
      {
        "id": 22,
        "p": 70000000.0,
        "q": 25000000.0
      },
      {
        "id": 23,
        "p": 70000000.0,
        "q": 20000000.0
      }
    ],
    "sym_load": [
      {
        "id": 24,
        "p": 96000000.0,
        "q": 10000000.0
      },
      {
        "id": 25,
        "p": 176000000.0,
        "q": 10000000.0
      }
    ],
    "transformer": [
      {
        "id": 30,
        "loading": 0.08030804888708128,
        "p_from": -69998590.37783694,
        "q_from": -16608392.256765181,
        "s_from": 71941930.3899943,
        "p_to": 69999999.99999984,
        "q_to": 18000000.00001087,
        "s_to": 72277243.99837315
      },
      {
        "id": 31,
        "loading": 0.08258927081843874,
        "p_from": -69998614.10793735,
        "q_from": -23620631.80802976,
        "s_from": 73876520.11324325,
        "p_to": 70000000.0,
        "q_to": 25000000.000006974,
        "s_to": 74330343.73659487
      },
      {
        "id": 32,
        "loading": 0.14166672081297937,
        "p_from": -65026913.33776717,
        "q_from": 109671158.32498378,
        "s_from": 127500048.73168144,
        "p_to": 65027997.9600532,
        "q_to": -108200348.2149271,
        "s_to": 126237695.9252828
      },
      {
        "id": 33,
        "loading": 0.08089010988089372,
        "p_from": -69998858.82798232,
        "q_from": -18818816.56145052,
        "s_from": 72484398.96966328,
        "p_to": 70000000.00000007,
        "q_to": 19999999.999996733,
        "s_to": 72801098.89280435
      }
    ]
  }
}
